! This file was written by the model and records all non-layout or debugging parameters used at run-time.

! === module MOM ===
SPLIT = True                    !   [Boolean] default = True
                                ! Use the split time stepping if true.
SPLIT_RK2B = False              !   [Boolean] default = False
                                ! If true, use a version of the split explicit time stepping scheme that
                                ! exchanges velocities with step_MOM that have the average barotropic phase over
                                ! a baroclinic timestep rather than the instantaneous barotropic phase.
CALC_RHO_FOR_SEA_LEVEL = False  !   [Boolean] default = False
                                ! If true, the in-situ density is used to calculate the effective sea level that
                                ! is returned to the coupler. If false, the Boussinesq parameter RHO_0 is used.
ENABLE_THERMODYNAMICS = True    !   [Boolean] default = True
                                ! If true, Temperature and salinity are used as state variables.
USE_EOS = True                  !   [Boolean] default = True
                                ! If true,  density is calculated from temperature and salinity with an equation
                                ! of state.  If USE_EOS is true, ENABLE_THERMODYNAMICS must be true as well.
DIABATIC_FIRST = False          !   [Boolean] default = False
                                ! If true, apply diabatic and thermodynamic processes, including buoyancy
                                ! forcing and mass gain or loss, before stepping the dynamics forward.
USE_CONTEMP_ABSSAL = False      !   [Boolean] default = False
                                ! If true, the prognostics T&S are the conservative temperature and absolute
                                ! salinity. Care should be taken to convert them to potential temperature and
                                ! practical salinity before exchanging them with the coupler and/or reporting
                                ! T&S diagnostics.
ADIABATIC = False               !   [Boolean] default = False
                                ! There are no diapycnal mass fluxes if ADIABATIC is true.  This assumes that KD
                                ! = 0.0 and that there is no buoyancy forcing, but makes the model faster by
                                ! eliminating subroutine calls.
DO_DYNAMICS = True              !   [Boolean] default = True
                                ! If False, skips the dynamics calls that update u & v, as well as the gravity
                                ! wave adjustment to h. This may be a fragile feature, but can be useful during
                                ! development
OFFLINE_TRACER_MODE = False     !   [Boolean] default = False
                                ! If true, barotropic and baroclinic dynamics, thermodynamics are all bypassed
                                ! with all the fields necessary to integrate the tracer advection and diffusion
                                ! equation are read in from files stored from a previous integration of the
                                ! prognostic model. NOTE: This option only used in the ocean_solo_driver.
USE_REGRIDDING = True           !   [Boolean] default = False
                                ! If True, use the ALE algorithm (regridding/remapping). If False, use the
                                ! layered isopycnal algorithm.
REMAP_UV_USING_OLD_ALG = False  !   [Boolean] default = False
                                ! If true, uses the old remapping-via-a-delta-z method for remapping u and v. If
                                ! false, uses the new method that remaps between grids described by an old and
                                ! new thickness.
REMAP_AUXILIARY_VARS = False    !   [Boolean] default = False
                                ! If true, apply ALE remapping to all of the auxiliary 3-dimensional variables
                                ! that are needed to reproduce across restarts, similarly to what is already
                                ! being done with the primary state variables.  The default should be changed to
                                ! true.
BULKMIXEDLAYER = False          !   [Boolean] default = False
                                ! If true, use a Kraus-Turner-like bulk mixed layer with transitional buffer
                                ! layers.  Layers 1 through NKML+NKBL have variable densities. There must be at
                                ! least NKML+NKBL+1 layers if BULKMIXEDLAYER is true. BULKMIXEDLAYER can not be
                                ! used with USE_REGRIDDING. The default is influenced by ENABLE_THERMODYNAMICS.
USE_POROUS_BARRIER = False      !   [Boolean] default = False
                                ! If true, use porous barrier to constrain the widths and face areas at the
                                ! edges of the grid cells.
BATHYMETRY_AT_VEL = False       !   [Boolean] default = False
                                ! If true, there are separate values for the basin depths at velocity points.
                                ! Otherwise the effects of topography are entirely determined from thickness
                                ! points.
DT = 1800.0                     !   [s]
                                ! The (baroclinic) dynamics time step.  The time-step that is actually used will
                                ! be an integer fraction of the forcing time-step (DT_FORCING in ocean-only mode
                                ! or the coupling timestep in coupled mode.)
DT_THERM = 3600.0               !   [s] default = 1800.0
                                ! The thermodynamic time step. Ideally DT_THERM should be an integer multiple of
                                ! DT and of DT_TRACER_ADVECT and less than the forcing or coupling time-step.
                                ! However, if THERMO_SPANS_COUPLING is true, DT_THERM can be an integer multiple
                                ! of the coupling timestep. By default DT_THERM is set to DT.
THERMO_SPANS_COUPLING = False   !   [Boolean] default = False
                                ! If true, the MOM will take thermodynamic timesteps that can be longer than the
                                ! coupling timestep. The actual thermodynamic timestep that is used in this case
                                ! is the largest integer multiple of the coupling timestep that is less than or
                                ! equal to DT_THERM.
DT_TRACER_ADVECT = 3600.0       !   [s] default = 3600.0
                                ! The tracer advection time step. Ideally DT_TRACER_ADVECT should be an integer
                                ! multiple of DT, less than DT_THERM, and less than the forcing or coupling
                                ! time-step. However, if TRADV_SPANS_COUPLING is true, DT_TRACER_ADVECT can be
                                ! longer than the coupling timestep. By default DT_TRACER_ADVECT is set to
                                ! DT_THERM.
TRADV_SPANS_COUPLING = False    !   [Boolean] default = False
                                ! If true, the MOM will take tracer advection timesteps that can be longer than
                                ! the coupling timestep. The actual tracer advection timestep that is used in
                                ! this case is the largest integer multiple of the coupling timestep that is
                                ! less than or equal to DT_TRACER_ADVECT.
THICKNESSDIFFUSE = True         !   [Boolean] default = False
                                ! If true, isopycnal surfaces are diffused with a Laplacian coefficient of KHTH.
APPLY_INTERFACE_FILTER = False  !   [Boolean] default = False
                                ! If true, model interface heights are subjected to a grid-scale dependent
                                ! spatial smoothing, often with biharmonic filter.
THICKNESSDIFFUSE_FIRST = True   !   [Boolean] default = False
                                ! If true, do thickness diffusion or interface height smoothing before dynamics.
                                ! This is only used if THICKNESSDIFFUSE or APPLY_INTERFACE_FILTER is true.
HMIX_SFC_PROP = 1.0             !   [m] default = 1.0
                                ! If BULKMIXEDLAYER is false, HMIX_SFC_PROP is the depth over which to average
                                ! to find surface properties like SST and SSS or density (but not surface
                                ! velocities).
HMIX_UV_SFC_PROP = 0.0          !   [m] default = 0.0
                                ! If BULKMIXEDLAYER is false, HMIX_UV_SFC_PROP is the depth over which to
                                ! average to find surface flow properties, SSU, SSV. A non-positive value
                                ! indicates no averaging.
HFREEZE = 10.0                  !   [m] default = -1.0
                                ! If HFREEZE > 0, melt potential will be computed. The actual depth over which
                                ! melt potential is computed will be min(HFREEZE, OBLD), where OBLD is the
                                ! boundary layer depth. If HFREEZE <= 0 (default), melt potential will not be
                                ! computed.
INTERPOLATE_P_SURF = False      !   [Boolean] default = False
                                ! If true, linearly interpolate the surface pressure over the coupling time
                                ! step, using the specified value at the end of the step.
DTBT_RESET_PERIOD = 7200.0      !   [s] default = 3600.0
                                ! The period between recalculations of DTBT (if DTBT <= 0). If DTBT_RESET_PERIOD
                                ! is negative, DTBT is set based only on information available at
                                ! initialization.  If 0, DTBT will be set every dynamics time step. The default
                                ! is set by DT_THERM.  This is only used if SPLIT is true.
FRAZIL = True                   !   [Boolean] default = False
                                ! If true, water freezes if it gets too cold, and the accumulated heat deficit
                                ! is returned in the surface state.  FRAZIL is only used if
                                ! ENABLE_THERMODYNAMICS is true.
DO_GEOTHERMAL = True            !   [Boolean] default = False
                                ! If true, apply geothermal heating.
BOUND_SALINITY = True           !   [Boolean] default = False
                                ! If true, limit salinity to being positive. (The sea-ice model may ask for more
                                ! salt than is available and drive the salinity negative otherwise.)
MIN_SALINITY = 0.0              !   [PPT] default = 0.0
                                ! The minimum value of salinity when BOUND_SALINITY=True.
SALINITY_UNDERFLOW = 0.0        !   [PPT] default = 0.0
                                ! A tiny value of salinity below which the it is set to 0.  For reference, one
                                ! molecule of salt per square meter of ocean is of order 1e-29 ppt.
TEMPERATURE_UNDERFLOW = 0.0     !   [degC] default = 0.0
                                ! A tiny magnitude of temperatures below which they are set to 0.
C_P = 3992.0                    !   [J kg-1 K-1] default = 3991.86795711963
                                ! The heat capacity of sea water, approximated as a constant. This is only used
                                ! if ENABLE_THERMODYNAMICS is true. The default value is from the TEOS-10
                                ! definition of conservative temperature.
USE_PSURF_IN_EOS = True         !   [Boolean] default = True
                                ! If true, always include the surface pressure contributions in equation of
                                ! state calculations.
P_REF = 2.0E+07                 !   [Pa] default = 2.0E+07
                                ! The pressure that is used for calculating the coordinate density.  (1 Pa = 1e4
                                ! dbar, so 2e7 is commonly used.) This is only used if USE_EOS and
                                ! ENABLE_THERMODYNAMICS are true.
FIRST_DIRECTION = 0             ! default = 0
                                ! An integer that indicates which direction goes first in parts of the code that
                                ! use directionally split updates, with even numbers (or 0) used for x- first
                                ! and odd numbers used for y-first.
ALTERNATE_FIRST_DIRECTION = False !   [Boolean] default = False
                                ! If true, after every dynamic timestep alternate whether the x- or y- direction
                                ! updates occur first in directionally split parts of the calculation. If this
                                ! is true, FIRST_DIRECTION applies at the start of a new run or if the next
                                ! first direction can not be found in the restart file.
CHECK_BAD_SURFACE_VALS = True   !   [Boolean] default = False
                                ! If true, check the surface state for ridiculous values.
BAD_VAL_SSH_MAX = 20.0          !   [m] default = 20.0
                                ! The value of SSH above which a bad value message is triggered, if
                                ! CHECK_BAD_SURFACE_VALS is true.
BAD_VAL_SSS_MAX = 75.0          !   [PPT] default = 45.0
                                ! The value of SSS above which a bad value message is triggered, if
                                ! CHECK_BAD_SURFACE_VALS is true.
BAD_VAL_SST_MAX = 45.0          !   [deg C] default = 45.0
                                ! The value of SST above which a bad value message is triggered, if
                                ! CHECK_BAD_SURFACE_VALS is true.
BAD_VAL_SST_MIN = -3.0          !   [deg C] default = -2.1
                                ! The value of SST below which a bad value message is triggered, if
                                ! CHECK_BAD_SURFACE_VALS is true.
BAD_VAL_COLUMN_THICKNESS = 0.0  !   [m] default = 0.0
                                ! The value of column thickness below which a bad value message is triggered, if
                                ! CHECK_BAD_SURFACE_VALS is true.
DEFAULT_ANSWER_DATE = 99991231  ! default = 99991231
                                ! This sets the default value for the various _ANSWER_DATE parameters.
SURFACE_ANSWER_DATE = 99991231  ! default = 99991231
                                ! The vintage of the expressions for the surface properties.  Values below
                                ! 20190101 recover the answers from the end of 2018, while higher values use
                                ! updated and more robust forms of the same expressions.
USE_DIABATIC_TIME_BUG = False   !   [Boolean] default = False
                                ! If true, uses the wrong calendar time for diabatic processes, as was done in
                                ! MOM6 versions prior to February 2018. This is not recommended.
SAVE_INITIAL_CONDS = True       !   [Boolean] default = False
                                ! If true, write the initial conditions to a file given by IC_OUTPUT_FILE.
IC_OUTPUT_FILE = "MOM_IC"       ! default = "MOM_IC"
                                ! The file into which to write the initial conditions.
WRITE_GEOM = 1                  ! default = 1
                                ! If =0, never write the geometry and vertical grid files. If =1, write the
                                ! geometry and vertical grid files only for a new simulation. If =2, always
                                ! write the geometry and vertical grid files. Other values are invalid.
GEOM_FILE = "ocean_geometry.nc" ! default = "ocean_geometry"
                                ! The file into which to write the ocean geometry.
USE_DBCLIENT = False            !   [Boolean] default = False
                                ! If true, initialize a client to a remote database that can be used for online
                                ! analysis and machine-learning inference.
ICE_SHELF = False               !   [Boolean] default = False
                                ! If true, enables the ice shelf model.
USE_PARTICLES = False           !   [Boolean] default = False
                                ! If true, use the particles package.
USE_UH_PARTICLES = False        !   [Boolean] default = False
                                ! If true, use the uh velocity in the particles package.
ENSEMBLE_OCEAN = False          !   [Boolean] default = False
                                ! If False, The model is being run in serial mode as a single realization. If
                                ! True, The current model realization is part of a larger ensemble and at the
                                ! end of step MOM, we will perform a gather of the ensemble members for
                                ! statistical evaluation and/or data assimilation.
HOMOGENIZE_FORCINGS = False     !   [Boolean] default = False
                                ! If True, homogenize the forces and fluxes.

! === module MOM_domains ===
REENTRANT_X = True              !   [Boolean] default = True
                                ! If true, the domain is zonally reentrant.
REENTRANT_Y = False             !   [Boolean] default = False
                                ! If true, the domain is meridionally reentrant.
TRIPOLAR_N = True               !   [Boolean] default = False
                                ! Use tripolar connectivity at the northern edge of the domain.  With
                                ! TRIPOLAR_N, NIGLOBAL must be even.
NIGLOBAL = 540                  !
                                ! The total number of thickness grid points in the x-direction in the physical
                                ! domain. With STATIC_MEMORY_ this is set in MOM_memory.h at compile time.
NJGLOBAL = 480                  !
                                ! The total number of thickness grid points in the y-direction in the physical
                                ! domain. With STATIC_MEMORY_ this is set in MOM_memory.h at compile time.
NIHALO = 4                      ! default = 4
                                ! The number of halo points on each side in the x-direction.  How this is set
                                ! varies with the calling component and static or dynamic memory configuration.
NJHALO = 4                      ! default = 4
                                ! The number of halo points on each side in the y-direction.  How this is set
                                ! varies with the calling component and static or dynamic memory configuration.

! === module MOM_hor_index ===
! Sets the horizontal array index types.

! === module MOM_grid ===
! Parameters providing information about the lateral grid.
REFERENCE_HEIGHT = 0.0          !   [m] default = 0.0
                                ! A reference value for geometric height fields, such as bathyT.

! === module MOM_fixed_initialization ===
INPUTDIR = "/glade/work/altuntas/mom6.standalone.runs/cesm/INPUT/t232" ! default = "."
                                ! The directory in which input files are found.

! === module MOM_grid_init ===
GRID_CONFIG = "mosaic"          !
                                ! A character string that determines the method for defining the horizontal
                                ! grid.  Current options are:
                                !     mosaic - read the grid from a mosaic (supergrid)
                                !              file set by GRID_FILE.
                                !     cartesian - use a (flat) Cartesian grid.
                                !     spherical - use a simple spherical grid.
                                !     mercator - use a Mercator spherical grid.
GRID_FILE = "ocean_hgrid_221123.nc" !
                                ! Name of the file from which to read horizontal grid data.
USE_TRIPOLAR_GEOLONB_BUG = False !   [Boolean] default = False
                                ! If true, use older code that incorrectly sets the longitude in some points
                                ! along the tripolar fold to be off by 360 degrees.
RAD_EARTH = 6.378E+06           !   [m] default = 6.378E+06
                                ! The radius of the Earth.
TOPO_CONFIG = "file"            !
                                ! This specifies how bathymetry is specified:
                                !     file - read bathymetric information from the file
                                !       specified by (TOPO_FILE).
                                !     flat - flat bottom set to MAXIMUM_DEPTH.
                                !     bowl - an analytically specified bowl-shaped basin
                                !       ranging between MAXIMUM_DEPTH and MINIMUM_DEPTH.
                                !     spoon - a similar shape to 'bowl', but with an vertical
                                !       wall at the southern face.
                                !     halfpipe - a zonally uniform channel with a half-sine
                                !       profile in the meridional direction.
                                !     bbuilder - build topography from list of functions.
                                !     benchmark - use the benchmark test case topography.
                                !     Neverworld - use the Neverworld test case topography.
                                !     DOME - use a slope and channel configuration for the
                                !       DOME sill-overflow test case.
                                !     ISOMIP - use a slope and channel configuration for the
                                !       ISOMIP test case.
                                !     DOME2D - use a shelf and slope configuration for the
                                !       DOME2D gravity current/overflow test case.
                                !     Kelvin - flat but with rotated land mask.
                                !     seamount - Gaussian bump for spontaneous motion test case.
                                !     dumbbell - Sloshing channel with reservoirs on both ends.
                                !     shelfwave - exponential slope for shelfwave test case.
                                !     Phillips - ACC-like idealized topography used in the Phillips config.
                                !     dense - Denmark Strait-like dense water formation and overflow.
                                !     USER - call a user modified routine.
TOPO_FILE = "ocean_topo_tx2_3v2_240501.nc" ! default = "topog.nc"
                                ! The file from which the bathymetry is read.
TOPO_VARNAME = "depth"          ! default = "depth"
                                ! The name of the bathymetry variable in TOPO_FILE.
TOPO_EDITS_FILE = "topo_edits_tx2_3v2_250107.nc" ! default = ""
                                ! The file from which to read a list of i,j,z topography overrides.
ALLOW_LANDMASK_CHANGES = False  !   [Boolean] default = False
                                ! If true, allow topography overrides to change land mask.
MINIMUM_DEPTH = 9.5             !   [m] default = 0.0
                                ! If MASKING_DEPTH is unspecified, then anything shallower than MINIMUM_DEPTH is
                                ! assumed to be land and all fluxes are masked out. If MASKING_DEPTH is
                                ! specified, then all depths shallower than MINIMUM_DEPTH but deeper than
                                ! MASKING_DEPTH are rounded to MINIMUM_DEPTH.
MASKING_DEPTH = 0.0             !   [m] default = -9999.0
                                ! The depth below which to mask points as land points, for which all fluxes are
                                ! zeroed out. MASKING_DEPTH is ignored if it has the special default value.
MAXIMUM_DEPTH = 6000.0          !   [m]
                                ! The maximum depth of the ocean.

! === module MOM_open_boundary ===
! Controls where open boundaries are located, what kind of boundary condition to impose, and what data to apply,
! if any.
OBC_NUMBER_OF_SEGMENTS = 0      ! default = 0
                                ! The number of open boundary segments.
CHANNEL_CONFIG = "list"         ! default = "none"
                                ! A parameter that determines which set of channels are
                                ! restricted to specific  widths.  Options are:
                                !     none - All channels have the grid width.
                                !     global_1deg - Sets 16 specific channels appropriate
                                !       for a 1-degree model, as used in CM2G.
                                !     list - Read the channel locations and widths from a
                                !       text file, like MOM_channel_list in the MOM_SIS
                                !       test case.
                                !     file - Read open face widths everywhere from a
                                !       NetCDF file on the model grid.
CHANNEL_LIST_FILE = "channels_tx2_3v2_250107.txt" ! default = "MOM_channel_list"
                                ! The file from which the list of narrowed channels is read.
CHANNEL_LIST_360_LON_CHECK = True !   [Boolean] default = True
                                ! If true, the channel configuration list works for any longitudes in the range
                                ! of -360 to 360.
FATAL_UNUSED_CHANNEL_WIDTHS = False !   [Boolean] default = False
                                ! If true, trigger a fatal error if there are any channel widths in
                                ! CHANNEL_LIST_FILE that do not cause any open face widths to change.
SUBGRID_TOPO_AT_VEL = False     !   [Boolean] default = False
                                ! If true, use variables from TOPO_AT_VEL_FILE as parameters for porous barrier.
ROTATION = "2omegasinlat"       ! default = "2omegasinlat"
                                ! This specifies how the Coriolis parameter is specified:
                                !     2omegasinlat - Use twice the planetary rotation rate
                                !       times the sine of latitude.
                                !     betaplane - Use a beta-plane or f-plane.
                                !     USER - call a user modified routine.
OMEGA = 7.2921E-05              !   [s-1] default = 7.2921E-05
                                ! The rotation rate of the earth.
GRID_ROTATION_ANGLE_BUGS = False !   [Boolean] default = False
                                ! If true, use an older algorithm to calculate the sine and cosines needed
                                ! rotate between grid-oriented directions and true north and east.  Differences
                                ! arise at the tripolar fold.

! === module MOM_verticalGrid ===
! Parameters providing information about the vertical grid.
G_EARTH = 9.8                   !   [m s-2] default = 9.8
                                ! The gravitational acceleration of the Earth.
RHO_0 = 1035.0                  !   [kg m-3] default = 1035.0
                                ! The mean ocean density used with BOUSSINESQ true to calculate accelerations
                                ! and the mass for conservation properties, or with BOUSSINSEQ false to convert
                                ! some parameters from vertical units of m to kg m-2.
BOUSSINESQ = True               !   [Boolean] default = True
                                ! If true, make the Boussinesq approximation.
ANGSTROM = 1.0E-10              !   [m] default = 1.0E-10
                                ! The minimum layer thickness, usually one-Angstrom.
H_TO_M = 1.0                    !   [m H-1] default = 1.0
                                ! A constant that translates the model's internal units of thickness into m.
NK = 75                         !   [nondim]
                                ! The number of model layers.

! === module MOM_tracer_registry ===

! === module MOM_EOS ===
EQN_OF_STATE = "WRIGHT"         ! default = "WRIGHT"
                                ! EQN_OF_STATE determines which ocean equation of state should be used.
                                ! Currently, the valid choices are "LINEAR", "UNESCO", "JACKETT_MCD", "WRIGHT",
                                ! "WRIGHT_REDUCED", "WRIGHT_FULL", "NEMO", "ROQUET_RHO", "ROQUET_SPV" and
                                ! "TEOS10".  This is only used if USE_EOS is true.
USE_WRIGHT_2ND_DERIV_BUG = False !   [Boolean] default = False
                                ! If true, use a bug in the calculation of the second derivatives of density
                                ! with temperature and with temperature and pressure that causes some terms to
                                ! be only 2/3 of what they should be.
EOS_QUADRATURE = False          !   [Boolean] default = False
                                ! If true, always use the generic (quadrature) code code for the integrals of
                                ! density.
TFREEZE_FORM = "LINEAR"         ! default = "LINEAR"
                                ! TFREEZE_FORM determines which expression should be used for the freezing
                                ! point.  Currently, the valid choices are "LINEAR", "MILLERO_78", "TEOS_POLY",
                                ! "TEOS10"
TFREEZE_S0_P0 = 0.0             !   [degC] default = 0.0
                                ! When TFREEZE_FORM=LINEAR, this is the freezing potential temperature at S=0,
                                ! P=0.